Circuit: * C:\Users\raikp\OneDrive - Charité - Universitätsmedizin Berlin\Github\expDBS\LTspice_circuit_simulations\Method_Simulation_DCC-IPG_Bipolar_100”A_3source_3TransientOvershoot.asc

Warning: Multiple definitions of model "2scr375p" Type: BJT
Warning: Multiple definitions of model "bc857b" Type: BJT
Warning: Multiple definitions of model "bc847c" Type: BJT
Warning: Multiple definitions of model "bc847b" Type: BJT
.OP point found by inspection.

Date: Fri Mar  6 09:07:09 2026
Total elapsed time: 4.988 seconds.

tnom = 27
temp = 27
method = modified trap
totiter = 1191363
traniter = 1191363
tranpoints = 592578
accept = 404374
rejected = 188204
matrix size = 59
fillins = 38
solver = Normal
Avg thread counts: 1.0/1.0/1.0/1.0
Matrix Compiler1: 6.30 KB object code size  1.6/0.7/[0.6]
Matrix Compiler2: off  [0.3]/0.7/0.3

